myETL/UCT_Source/20221102_1230_FO3_DE0.uct
##C 2007.05.01
AMPRION GMBH, SSC BERGHEIM
D-1 FORECAST GERMAN CONTROL BLOCK 2-NOV-2022 12:30 H
TRANSNETBW, TENNET DE, AMPRION GMBH, 50HERTZ, ENERGINET
##N
##ZXX
XAS_KU11 CH-D4        0 2 411.95 26.1594 24.0978 .000000 .000000
XBE_OX21 BE-LU        0 2 231.00 .000000 .000000 .000000 .000000
XBE_TI11 CH-D7        0 2 413.00 69.8210 -13.307 .000000 .000000
XBE_TI21 CH-D7        0 2 239.58 20.8423 -9.1418 .000000 .000000
XDI_ME11 D2-NL        0 2 403.52 1045.30 15.6321 .000000 .000000
XDI_ME12 D2-NL        0 2 403.52 1045.30 15.6321 .000000 .000000
XED_EE1D DKW-NL DC    0 0        .600000 2.30000 .000000 .000000
XEI_MU11 D4-FR        0 2 410.80 101.928 19.2056 .000000 .000000
XEI_VO21 D4-FR        0 2 235.09 39.9634 25.0276 .000000 .000000
XEN_SA21 D7-FR        0 2 231.00 .000000 .000000 .000000 .000000
XEN_VI11 D7-FR        0 2 410.61 121.151 24.3619 .000000 .000000
XEN_VI12 D7-FR        0 2 410.70 126.469 24.7135 .000000 .000000
XGR_HG11 D7-NL        0 2 392.61 300.297 -6.8683 .000000 .000000
XGR_HG12 D7-NL        0 2 392.61 300.297 -6.8683 .000000 .000000
XHG_MI11 D8-PL        0 2 404.75 380.667 .078057 .000000 .000000
XHG_MI12 D8-PL        0 2 404.75 369.215 .067032 .000000 .000000
XHR_ET11 CZ-D2        0 2 405.00 .000000 .000000 .000000 .000000
XHR_RO11 CZ-D8        0 2 402.25 428.214 -4.5601 .000000 .000000
XHR_RO12 CZ-D8        0 2 402.25 428.214 -4.5601 .000000 .000000
XLA_EN11 CH-D4        0 2 415.91 156.326 40.2934 .000000 .000000
XLA_GU21 CH-D4        0 2 234.19 5.50448 18.7794 .000000 .000000
XLA_GU22 CH-D4        0 2 234.51 15.4229 20.7996 .000000 .000000
XLA_KU11 CH-D4        0 2 410.89 46.0985 20.1069 .000000 .000000
XLA_KU12 CH-D4        0 2 410.89 46.0985 20.1054 .000000 .000000
XLA_KU13 CH-D4        0 2 412.05 79.7394 24.4681 .000000 .000000
XLA_KU21 CH-D4        0 2 236.16 19.3085 30.4836 .000000 .000000
XLA_KU22 CH-D4        0 2 232.81 5.50448 10.5352 .000000 .000000
XLA_TI11 CH-D7        0 2 413.07 33.8283 -13.112 .000000 .000000
XLI_OB1A              0 0        .000000 .000000 -321.00 .000000
XMN_BR21 AT-D4        0 2 236.78 7.75402 34.2668 .000000 .000000
XNR_DT11 D7-NL        0 2 398.88 324.837 -3.1039 .000000 .000000
XNR_DT12 D7-NL        0 2 398.99 329.439 -2.6189 .000000 .000000
XOB_MB11 D7-NL        0 2 410.41 563.698 15.6907 .000000 .000000
XPE_AH21 AT-D2        0 2 232.63 39.9634 9.64844 .000000 .000000
XPE_PI21 AT-D2        0 2 233.49 43.7467 -2.4633 .000000 .000000
XPE_PT21 AT-D2        0 2 238.04 138.739 42.0746 .000000 .000000
XPE_SI21 AT-D2        0 2 232.63 39.9634 9.63797 .000000 .000000
XPR_ET11 CZ-D2        0 2 418.12 86.6925 48.5854 .000000 .000000
XSC_SC21 BE-LU        0 2 241.82 .000000 .000000 -35.010 65.3773
XSI_MB11 D7-NL        0 2 410.34 375.350 13.1963 .000000 .000000
XVI_KR11 D8-PL        0 2 403.56 183.116 -10.011 .000000 .000000
XVI_KR12 D8-PL        0 2 405.00 .000000 .000000 .000000 .000000
XWA_BR21 AT-D4        0 2 237.06 15.4229 36.0405 .000000 .000000
XWE_BR12 AT-D4        0 2 409.21 104.280 14.9437 .000000 .000000
XWE_BR21 AT-D4        0 2 235.92 3.15269 29.0321 .000000 .000000
XWE_LE11 AT-D7        0 2 407.25 242.116 -31.084 .000000 .000000
XWE_SI2A AT-D2        0 2 235.67 7.03826 27.4915 .000000 .000000
XWE_SI2B AT-D2        0 2 235.67 7.03826 27.4915 .000000 .000000
XWE_SI2C AT-D2        0 2 235.65 6.22025 27.4100 .000000 .000000
XWE_VO21              0 2 237.41 .903143 38.6516 .000000 .000000
XWE_WB21 AT-D7        0 2 231.00 .000000 .000000 .000000 .000000
XWE_WB22 AT-D7        0 2 231.00 .000000 .000000 .000000 .000000
XWI_ET11              0 0        407.000 -500.00 .000000 .000000
XWI_ET12              0 0        407.000 -500.00 .000000 .000000
XYV_SI21 AT-D2        0 2 235.17 1.61891 24.5135 .000000 .000000
XYV_SI22 AT-D2        0 2 235.17 1.61891 24.5135 .000000 .000000
##ZDE
D1ABS_3  ABILDSKOV    0 0        .000000 58.3000 -4.8000 .200000
D1ABS_31 ABILDSKOV    0 0        .000000 .000000 .000000 .000000
D1ADL_3  ADALEN       0 0        40.6366 .800000 .000000 .000000
D1AHA_2  ANHOLT HAVMO 0 0        .000000 .000000 -390.40 46.5000
D1AND_3  ANDST        0 0        27.9251 .700000 .000000 .000000
D1ASR_1  ASKAER       0 0        .000000 135.300 .000000 .000000
D1ASR_11 ASKAER       0 0        .000000 117.200 .000000 .000000
D1ASR_3  ASKAER       0 0        .000000 .000000 .000000 .000000
D1BBG_2  HORNS REV 3  0 0        .000000 120.200 .000000 .000000
D1BBG_3  HORNS REV 2  0 0        .000000 75.8000 .000000 .000000
D1BBR_3  BREDEBRO     0 0        .000000 .000000 -31.200 .800000
D1BDK_3  BREDKAER     0 0        .000000 .000000 -52.800 2.50000
D1BDR_3  BRAMDRUP     0 0        40.8368 1.10000 .000000 .000000
D1BED_3  BEDSTED      0 0        .000000 82.6000 -9.9000 .200000
D1BIL_3  BILSTRUP     0 0        13.4121 69.3000 .000000 .000000
D1BJH_3  BJOERNHOLT   0 0        54.0486 89.0000 .000000 .000000
D1BLV_3  HORNS REV 1  0 0        .000000 .000000 .000000 .000000
D1BMS_1  BMS          0 0        .000000 .000000 .000000 .000000
D1DYB_3  DYBVAD       0 0        .000000 .000000 -5.6000 .300000
D1EDR_1  ENDRUP       0 0        .000000 .000000 .000000 .000000
D1EDR_2  ENDRUP       0 0        .000000 181.900 .000000 .000000
D1EDR_3  ENDRUP       0 0        .000000 184.000 .000000 .000000
D1ENB_3               0 0        .000000 60.3000 -14.100 .400000
D1EST_3  ESTRUPVEJ    0 0        25.2227 .700000 .000000 .000000
D1FER_1  FERSLEV      0 0        .000000 321.200 .000000 .000000
D1FER_3  FERSLEV      0 0        3.50315 74.7000 .000000 .000000
D1FER_31 FERSLEV      0 0        .000000 .000000 .000000 .000000
D1FGD_1  FRAUGDE      0 0        .000000 -16.500 .000000 .000000
D1FGD_3  FRAUGDE      0 0        .000000 76.2000 -32.800 1.50000
D1FGV_3  FGV          0 0        .100090 .000000 .000000 .000000
D1FOU_3  FOULUM       0 0        .400360 .400000 .000000 .000000
D1FRD_3  FREDENSDAL   0 0        .000000 .000000 -11.100 .300000
D1FRT_3  FROESTRUP    0 0        -21.000 40.2000 .000000 .000000
D1FVO_1  FYNSVAERKET  0 2 413.20 .000000 .000000 -1.0000 26.0124 .000000 -352.00 180.000 -250.00
D1FVO_3  FYNSVAERKET  0 0        32.4292 6.10000 .000000 .000000
D1GAT_1  GAT?         0 0        .000000 .000000 .000000 .000000
D1GAT_11 GAT?         0 0        .000000 .000000 .000000 .000000
D1GMO_3               0 0        .100090 .100000 .000000 .000000
D1GNK_2               0 0        .000000 116.900 .000000 .000000
D1GRP_3  GRADERUP     0 0        32.3291 100.300 .000000 .000000
D1GRP_31 GRADERUP     0 0        .000000 .000000 .000000 .000000
D1GST_1               0 0        .000000 .000000 .000000 .000000
D1GST_11              0 0        .000000 .000000 .000000 .000000
D1HAK_3               0 0        .000000 .000000 .000000 .000000
D1HAL_3               0 0        .000000 .000000 .000000 .000000
D1HAL_31              0 0        .000000 .000000 .000000 .000000
D1HASV3  HASLE        0 0        67.1604 3.00000 .000000 .000000
D1HAT_3  HATTING      0 0        82.0739 6.20000 .000000 .000000
D1HESV3               0 2 164.80 .000000 47.0000 -3.3000 5.86355 .000000 -78.400 20.0000 -28.000
D1HIN_3               0 0        .000000 .000000 .000000 .000000
D1HIN_31              0 0        .000000 .000000 .000000 .000000
D1HJP_3               0 0        .000000 .300000 .000000 .000000
D1HLA_1               0 0        .000000 .000000 .000000 .000000
D1HLA_11              0 0        .000000 .000000 .000000 .000000
D1HNB_1  HORNBAEK     0 0        .000000 96.2000 .000000 .000000
D1HNB_3  HORNBAEK     0 0        .400360 .400000 .000000 .000000
D1HQN_3  HORNING      0 0        28.5257 1.30000 .000000 .000000
D1HRA_3  HORNS REV 1  0 0        .000000 .000000 -149.60 29.2000
D1HRB_3  HORNS REV 2  0 0        .000000 .000000 -156.70 20.4000
D1HRC_2  HORNS REV 3  0 0        .000000 .000000 -395.50 46.1000
D1HSKV3  HOESKOV      0 0        53.2479 2.70000 .000000 .000000
D1HVO_3  HVORUPGAARD  0 0        .000000 .000000 -4.5000 .100000
D1HVV_3  HANDVAERKERV 0 0        17.3156 .500000 .000000 .000000
D1IDU_1  IDUMLUND     0 0        .000000 .000000 .000000 .000000
D1IDU_3  IDUMLUND     0 0        .000000 104.600 -83.200 3.90000
D1IDU_31 IDUMLUND     0 0        .000000 .000000 .000000 .000000
D1JLV_1               0 0        .000000 .000000 .000000 .000000
D1JLV_3               0 0        .000000 .000000 .000000 .000000
D1KAE_3  KARLSGARDE   0 0        .000000 38.4000 -23.500 .500000
D1KAG_1  KATBJERG     0 0        .000000 .000000 .000000 .000000
D1KAG_3  KATBJERG     0 0        .000000 .000000 .000000 .000000
D1KAS_1  KASSOE       0 2 414.10 .000000 107.500 .000000 113.192
D1KAS_3  KASSOE       0 0        .000000 .000000 .000000 .000000
D1KAU_1               0 0        .000000 .000000 .000000 .000000
D1KAU_11              0 0        .000000 .000000 .000000 .000000
D1KBBV3  KAERBYBRO    0 0        .000000 .000000 -45.200 1.60000
D1KIN_1  KINGSTRUP    0 0        .000000 .000000 .000000 .000000
D1KIN_3  KINGSTRUP    0 0        .000000 .000000 .000000 .000000
D1KKR_1               0 0        .000000 .000000 .000000 .000000
D1KKR_11              0 0        .000000 .000000 .000000 .000000
D1KLF_3  KLIM FJORDHO 0 0        .000000 63.1000 -63.000 3.10000
D1KLY_3               0 0        .000000 .000000 .000000 .000000
D1KNA_3  KNABBERUP    0 0        34.9314 1.10000 .000000 .000000
D1KSH_3               0 0        .000000 .000000 .000000 .000000
D1KSS_1               0 0        .000000 .000000 .000000 .000000
D1KSS_11              0 0        .000000 .000000 .000000 .000000
D1KTA_3               0 0        .000000 .000000 .000000 .000000
D1KTA_31              0 0        .000000 .000000 .000000 .000000
D1KTR_3               0 0        .000000 .000000 .000000 .000000
D1KTR_31              0 0        .000000 .000000 .000000 .000000
D1KVK_3               0 0        .000000 .000000 .000000 .000000
D1LAG_1  LANDERUPGAAR 0 0        .000000 486.500 .000000 .000000
D1LAG_3  LANDERUPGAAR 0 0        .000000 .000000 .000000 .000000
D1LKR_3  LEMKAER      0 0        .000000 .000000 -74.000 4.50000
D1LOL_3  LOLDRUP      0 0        20.9188 41.3000 .000000 .000000
D1LYK_3  LYKKEGARD OG 0 0        2.90261 .000000 .000000 .000000
D1MAG_3  MAGSTRUP     0 0        .000000 .000000 -1.0000 .200000
D1MAL_1  MALLING      0 0        .000000 .000000 .000000 .000000
D1MAL_3  MALLING      0 0        23.9215 .500000 .000000 .000000
D1MES_3  MESBALLE     0 0        26.0234 .700000 .000000 .000000
D1MKS_1  STUDSTRUP    0 0        .000000 .000000 .000000 .000000
D1MKS_3  STUDSTRUP    0 2 165.00 .000000 .000000 -100.50 4.46900 -35.200 -359.50 110.000 -230.00
D1MLP_3  MOLLERUP     0 0        50.1451 2.30000 .000000 .000000
D1MLU_3  MOSELUND     0 0        22.6204 .600000 .000000 .000000
D1MOSV3  MOSBAEK      0 0        .000000 .000000 -15.400 .400000
D1NOR_3  NORS         0 0        .000000 60.0000 -33.400 .900000
D1NSP_3  NIBSTRUP     0 0        .000000 38.2000 -20.800 .700000
D1NVV_1  VENDSYSSELVA 0 2 413.60 .000000 .000000 -.70000 -270.50 .000000 -1.0000 185.000 -290.00
D1NVV_3  VENDSYSSELVA 0 0        .000000 73.7000 -4.9000 .300000
D1OSQ_3  ODENSE SYDOE 0 0        35.4319 1.80000 .000000 .000000
D1PZR_1               0 0        .000000 .000000 .000000 .000000
D1PZR_11              0 0        .000000 .000000 .000000 .000000
D1QSG_1               0 0        .000000 .000000 .000000 .000000
D1QSG_3               0 0        .000000 .000000 .000000 .000000
D1RAK_3               0 0        .000000 .000000 .000000 .000000
D1RAM_3  RAMME        0 0        .000000 .000000 -34.800 1.00000
D1REF_1               0 0        .000000 .000000 .000000 .000000
D1REF_11              0 0        .000000 .000000 .000000 .000000
D1REV_1  REVSING      0 0        .000000 .000000 .000000 .000000
D1RIB_3  RIBE         0 0        .000000 .000000 -6.7000 .300000
D1ROV_1  ROV?         0 0        .000000 .000000 .000000 .000000
D1ROV_11 ROV?         0 0        .000000 .000000 .000000 .000000
D1RSL_3  ROSLEV       0 0        .000000 69.0000 -51.300 2.40000
D1RYT_3  RYTTERGARD   0 0        51.8467 2.10000 .000000 .000000
D1SBA_3  STARBAKKE    0 0        16.2146 1.30000 .000000 .000000
D1SFE_3  SDR FELDING  0 0        2.70243 .100000 .000000 .000000
D1SHE_3  ENSTEDVAERKE 0 0        19.5176 101.500 .000000 .000000
D1SIN_3  SINDBJERG    0 0        .000000 69.0000 -32.700 1.10000
D1SKA_3  SKANSEN      0 0        12.1109 .200000 .000000 .000000
D1SKH_1               0 0        .000000 .000000 .000000 .000000
D1SKH_11              0 0        .000000 .000000 .000000 .000000
D1SQN_3  SQN3         0 0        26.4238 41.4000 .000000 .000000
D1STR_3  STRUER       0 0        .000000 38.4000 -15.300 1.10000
D1STR_31 STRUER       0 0        .000000 .000000 .000000 .000000
D1STSV3  STOVSTRUP    0 0        .000000 106.200 -73.800 2.80000
D1SVB_3  SVENBORG     0 0        1.70153 .200000 .000000 .000000
D1SVGV3               0 0        .000000 .000000 .000000 .000000
D1SVS_1  SKAERBAEKVAE 0 0        .000000 .000000 .000000 .000000
D1SVS_3  SKAERBAEKVAE 0 0        .000000 .000000 -2.8000 .000000
D1TAN_3  TANGE        0 0        15.6141 .400000 .000000 .000000
D1TEB_1               0 0        .000000 .000000 .000000 .000000
D1TEB_3               0 0        .000000 .000000 .000000 .000000
D1THQ_3  TINGHOEJ     0 0        .000000 .000000 -41.100 3.00000
D1THY_3  THYREGOD     0 0        .000000 .000000 .000000 .000000
D1TJE_1  TJELE        0 0        .000000 -251.20 .000000 .000000
D1TJE_3  TJELE        0 2 165.00 .000000 -120.00 .000000 30.3369                 30.0000 -160.00
D1TJE_31 TJELE        0 0        .000000 74.6000 .000000 .000000
D1TNK_3               0 0        .000000 .000000 .000000 .000000
D1TRI_1  TRIGE        0 0        .000000 .000000 .000000 .000000
D1TRI_2  TRIGE        0 0        .000000 229.600 .000000 .000000
D1TRI_3  TRIGE        0 0        .000000 94.6000 .000000 .000000
D1TSV_3               0 0        .000000 .000000 .000000 .000000
D1TUP_3               0 0        .100090 .200000 .000000 .000000
D1UWN_3  UMSPANNW. NO 0 2 165.80 .000000 .000000 15.8000 .642098                 5.00000 -5.0000
D1VER_1               0 0        .000000 .000000 .000000 .000000
D1VER_11              0 0        .000000 .000000 .000000 .000000
D1VHA_1  VESTER HASSI 0 0        .000000 -256.80 .000000 .000000
D1VHA_3  VESTER HASSI 0 2 163.00 .000000 36.8000 -30.500 12.3337                 36.0000 -100.00
D1VID_3  VIDEBAEK     0 0        .000000 41.0000 -34.500 .500000
D1VIL_3  VILSTED      0 0        .000000 .000000 -39.200 1.40000
D1VIU_1               0 0        .000000 .000000 .000000 .000000
D1VIU_11              0 0        .000000 .000000 .000000 .000000
D1VKE_3  VESTKRAFT    0 2 165.00 .000000 .000000 -1.0000 3.74181 .000000 -1.0000 155.000 -245.00
D1ZBQ_3  ZBQ3         0 0        22.1199 39.9000 .000000 .000000
D1ZSP_3  ZSP3         0 0        18.2164 56.9000 .000000 .000000
D2008051              0 0        .000000 .000000 .000000 .000000
D2009021              0 0        .000000 .000000 .000000 .000000
D2009321              0 0        .000000 .000000 .000000 .000000
D200AO11              0 0        .000000 .000000 .000000 .000000
D200AR11              0 0        .000000 .000000 .000000 .000000
D200CU51              0 0        .000000 .000000 .000000 .000000
D200FY51              0 0        .000000 .000000 .000000 .000000
D200K021              0 0        .000000 .000000 .000000 .000000
D200K221              0 0        .000000 .000000 .000000 .000000
D200KE21              0 0        .000000 .000000 .000000 .000000
D2AHM 21 ALTHEIM      0 0        .000000 .000000 .000000 .000000
D2AHM 22 ALTHEIM      0 0        .000000 .000000 .000000 .000000
D2AHM 23 ALTHEIM      0 0        .000000 .000000 .000000 .000000
D2AHM 51 ALTHEIM      0 0        -37.200 25.5000 .000000 .000000
D2AHM 52 ALTHEIM      0 0        -37.200 25.5000 .000000 .000000
D2AHM 53 ALTHEIM      0 0        -37.200 25.5000 .000000 .000000
D2ALFS12 ALFSTEDT     0 0        .000000 .000000 .000000 .000000
D2ALFS14 ALFSTEDT     0 0        .000000 .000000 .000000 .000000
D2ALFS51 ALFSTEDT     0 0        -195.60 -40.700 .000000 .000000
D2ALFS53 ALFSTEDT     0 0        -195.60 -40.700 .000000 .000000
D2ALFS58 ALFSTEDT     0 0        .000000 .000000 .000000 .000000
D2ALGE11 ALGERMISSEN  0 0        .000000 .000000 .000000 .000000
D2ALGE53 ALGERMISSEN  0 0        4.90441 -2.2000 .000000 .000000
D2ALGE54 ALGERMISSEN  0 0        4.90441 -2.2000 .000000 .000000
D2AS  11 ASCHAFFENBUR 0 0        .000000 .000000 .000000 .000000
D2AS  12 ASCHAFFENBUR 0 0        .000000 .000000 .000000 .000000
D2AS  51 ASCHAFFENBUR 0 0        39.5356 -16.900 .000000 .000000
D2AS  52 ASCHAFFENBUR 0 0        39.5356 -16.900 .000000 .000000
D2ASSL11 ASSLAR       0 0        32.9296 23.4000 .000000 .000000
D2ASSL51 ASSLAR       0 0        8.20739 -3.5000 .000000 .000000
D2ASSL52 ASSLAR       0 0        8.20739 -3.5000 .000000 .000000
D2AUDO23 AUDORF       0 0        .000000 .000000 .000000 .000000
D2AUDO51 AUDORF       0 2 115.10 -58.400 -34.200 .000000 123.220 .000000 -83.000 41.0000 -57.400
D2AUDO52 AUDORF       0 0        -58.400 -34.200 .000000 .000000
D2AUDS11 AUDORF SUED  0 0        .000000 .000000 .000000 .000000
D2AUDS14 AUDORF SUED  0 0        .000000 .000000 .000000 .000000
D2AUDS21 AUDORF SUED  0 0        .000000 .000000 .000000 .000000
D2AUDS22 AUDORF SUED  0 0        .000000 .000000 .000000 .000000
D2AUDS23 AUDORF SUED  0 0        .000000 .000000 .000000 .000000
D2AUDS51 AUDORF SUED  0 0        .000000 .000000 .000000 .000000
D2AUDS59 AUDORF SUED  0 0        .000000 .000000 .000000 .000000
D2BA-N51 BA-N         0 0        22.6204 -7.4000 .000000 .000000
D2BA-N52 BA-N         0 0        22.6204 -7.4000 .000000 .000000
D2BDOR11 BROKDORF     0 0        .000000 .000000 .000000 .000000
D2BDOR21 BROKDORF     0 0        -48.000 13.8000 .000000 .000000
D2BECH11 BECHTERDISS  0 0        .000000 .000000 .000000 .000000
D2BECH12 BECHTERDISS  0 0        .000000 .000000 .000000 .000000
D2BECH13 BECHTERDISS  0 0        .000000 .000000 .000000 .000000
D2BECH21 BECHTERDISS  0 0        .000000 .000000 .000000 .000000
D2BECH22 BECHTERDISS  0 0        .000000 .000000 .000000 .000000
D2BECH51 BECHTERDISS  0 0        25.4229 -10.700 .000000 .000000
D2BEHS11 BERGSHAUSEN  0 0        -1.8000 .400000 .000000 .000000
D2BEHS12 BERGSHAUSEN  0 0        .000000 .000000 .000000 .000000
D2BEHS51 BERGSHAUSEN  0 0        -7.1000 .800000 .000000 .000000
D2BEHS52 BERGSHAUSEN  0 0        -7.1000 .800000 .000000 .000000
D2BLOC22 BLOCKLAND    0 0        16.6150 -4.4000 .000000 .000000
D2BORK11 BORKEN       0 0        .000000 .000000 .000000 .000000
D2BORK12 BORKEN       0 0        .000000 .000000 .000000 .000000
D2BORK13 BORKEN       0 0        6.00540 1.70000 .000000 .000000
D2BORK51 BORKEN       0 0        -24.700 3.70000 .000000 .000000
D2BORK52 BORKEN       0 0        -24.700 3.70000 .000000 .000000
D2BRAN22 BRAUNSCHWEIG 0 0        .000000 .000000 .000000 .000000
D2BRAN23 BRAUNSCHWEIG 0 0        .000000 .000000 .000000 .000000
D2BRAN51 BRAUNSCHWEIG 0 0        -.70000 .700000 .000000 .000000
D2BRAN52 BRAUNSCHWEIG 0 0        -1.4000 1.50000 .000000 .000000
D2BRAN54 BRAUNSCHWEIG 0 0        -.70000 .700000 .000000 .000000
D2BRAN55 BRAUNSCHWEIG 0 0        .000000 .000000 .000000 .000000
D2BRFW11 BERGRHEIN. W 0 0        .000000 .000000 .000000 .000000
D2BRFW12 BERGRHEIN. W 0 2 408.90 .000000 .000000 .100000 -320.06 5.10000 -3.9000 181.900 -240.20
D2BRFW13 BERGRHEIN. W 0 0        .000000 .000000 .000000 .000000
D2BRFW51 BERGRHEIN. W 0 0        -20.300 -.40000 .000000 .000000
D2BRFW52 BERGRHEIN. W 0 0        -20.300 -.40000 .000000 .000000
D2BRUN11 BRUNSBUETTEL 0 0        .000000 .000000 .000000 .000000
D2BRUN12 BRUNSBUETTEL 0 0        .000000 .000000 .000000 .000000
D2BRUN13 BRUNSBUETTEL 0 0        .000000 .000000 .000000 .000000
D2BRUN21 BRUNSBUETTEL 0 0        .000000 .000000 .000000 .000000
D2BRUN51 BRUNSBUETTEL 0 0        -1.2000 -.30000 .000000 .000000
D2BRUN59 BRUNSBUETTEL 0 0        .000000 .000000 .000000 .000000
D2BUKD8A BUTTEL_HWIN2 0 0        .000000 .000000 .000000 .000000
D2BUKD8B BUTTEL_HWIN2 0 2 324.00 96.0865 .000000 -424.00 221.417 11.0000 -702.00 420.000 -340.00
D2BUKE2A BUTTEL_HWIN1 0 0        .000000 .000000 .000000 .000000
D2BUKE2B BUTTEL_HWIN1 0 2 245.60 81.0730 .000000 -540.00 178.552 20.0000 -583.00 260.800 -252.40
D2BUKZ8A BUTTEL_SWIN1 0 0        .000000 .000000 .000000 .000000
D2BUKZ8B BUTTEL_SWIN1 0 2 341.40 123.111 .000000 -842.00 197.768 15.0000 -874.00 320.500 -295.00
D2BUTL11 BUETTEL      0 0        .000000 .000000 .000000 .000000
D2BUTL12 BUETTEL      0 0        .000000 .000000 .000000 .000000
D2CLPO23 CLOPPENBURG  0 0        .000000 .000000 .000000 .000000
D2CLPO24 CLOPPENBURG  0 0        .000000 .000000 .000000 .000000
D2CLPO51 CLOPPENBURG  0 0        -149.20 -14.800 .000000 .000000
D2CLPO52 CLOPPENBURG  0 0        -149.20 -14.800 .000000 .000000
D2CONN11 CONNEFORDE   0 0        .000000 .000000 .000000 .000000
D2CONN12 CONNEFORDE   0 0        .000000 .000000 .000000 .000000
D2CONN21 CONNEFORDE   0 0        .000000 .000000 .000000 .000000
D2CONN22 CONNEFORDE   0 0        .000000 .000000 .000000 .000000
D2CONN23 CONNEFORDE   0 0        .000000 .000000 .000000 .000000
D2CONN24 CONNEFORDE   0 0        .000000 .000000 .000000 .000000
D2CONN25 CONNEFORDE   0 0        .000000 .000000 .000000 .000000
D2CONN26 CONNEFORDE   0 0        .000000 .000000 .000000 .000000
D2CONN52 CONNEFORDE   0 0        -214.40 -33.800 .000000 .000000
D2CONN57 CONNEFORDE   0 0        .000000 .000000 .000000 .000000
D2CONN58 CONNEFORDE   0 0        .000000 .000000 .000000 .000000
D2CONO11 CONNEFORDE O 0 0        .000000 .000000 .000000 .000000
D2CONO13 CONNEFORDE O 0 0        .000000 .000000 .000000 .000000
D2CONO19 CONNEFORDE O 0 0        .000000 .000000 .000000 .000000
D2CONO27 CONNEFORDE O 0 0        .000000 .000000 .000000 .000000
D2CONO29 CONNEFORDE O 0 0        .000000 .000000 .000000 .000000
D2CONO59 CONNEFORDE O 0 0        .000000 .000000 .000000 .000000
D2DIEL11 DIELE        0 0        .000000 .000000 .000000 .000000
D2DIEL12 DIELE        0 0        .000000 .000000 .000000 .000000
D2DIEL13 DIELE        0 0        .000000 .000000 .000000 .000000
D2DIEL15 DIELE        0 0        .000000 .000000 .000000 .000000
D2DIEL51 DIELE        0 0        -226.90 19.7000 .000000 .000000
D2DIKE21 BORWIN ALPHA 0 0        .000000 .000000 .000000 .000000
D2DIKE2A BORWIN ALPHA 0 2 209.40 .000000 .000000 -348.00 -82.371 22.0000 -400.00 150.000 -200.00
D2DIKZ8A BORWIN BETA  0 0        .000000 .000000 .000000 .000000
D2DIKZ8B BORWIN BETA  0 2 316.60 .000000 .000000 -701.00 -18.971 28.0000 -803.00 433.600 -320.40
D2DILL11 DILLENBURG   0 0        .000000 .000000 .000000 .000000
D2DILL51 DILLENBURG   0 0        .000000 .000000 .000000 .000000
D2DILL52 DILLENBURG   0 0        3.50315 .200000 .000000 .000000
D2DIPP12 DIPPERZ      0 0        .000000 .000000 .000000 .000000
D2DIPP51 DIPPERZ      0 0        -45.100 -.20000 .000000 .000000
D2DIPP52 DIPPERZ      0 0        -45.100 -.20000 .000000 .000000
D2DOEH21 DOERNIGHEIM  0 0        .000000 .000000 .000000 .000000
D2DOEH22 DOERNIGHEIM  0 0        .000000 .000000 .000000 .000000
D2DOEH53 DOERNIGHEIM  0 0        11.5104 -5.5000 .000000 .000000
D2DOEH54 DOERNIGHEIM  0 0        22.9206 -11.000 .000000 .000000
D2DOEH58 DOERNIGHEIM  0 0        .000000 .000000 .000000 .000000
D2DOEW11 DOERPEN WEST 0 0        .000000 .000000 .000000 .000000
D2DOEW14 DOERPEN WEST 0 0        .000000 .000000 .000000 .000000
D2DOLL11 DOLLERN      0 0        .000000 .000000 .000000 .000000
D2DOLL12 DOLLERN      0 0        .000000 .000000 .000000 .000000
D2DOLL13 DOLLERN      0 0        .000000 .000000 .000000 .000000
D2DOLL21 DOLLERN      0 0        .000000 .000000 .000000 .000000
D2DOLL22 DOLLERN      0 0        .000000 .000000 .000000 .000000
D2DOLL51 DOLLERN      0 0        -104.10 -42.600 .000000 .000000
D2DOLL52 DOLLERN      0 0        -104.10 -42.600 .000000 .000000
D2DORT51              0 0        -9.3000 -4.5000 .000000 .000000
D2DWKD1A DOLWIN GAMMA 0 0        .000000 .000000 .000000 .000000
D2DWKD1B DOLWIN GAMMA 0 2 417.40 274.997 .000000 -714.00 -157.84 10.0000 -850.00 291.000 -352.00
D2DWKE1A DOLWIN ALPHA 0 0        .000000 .000000 .000000 .000000
D2DWKE1B DOLWIN ALPHA 0 2 391.40 235.712 .000000 -538.00 -65.083 18.0000 -767.00 261.000 -296.00
D2DWKZ1A DOLWIN BETA  0 0        .000000 .000000 .000000 .000000
D2DWKZ1B DOLWIN BETA  0 2 389.70 274.997 .000000 -761.00 -61.377 12.0000 -878.00 291.000 -352.00
D2EICK11 EICKUM       0 0        .000000 .000000 .000000 .000000
D2EICK12 EICKUM       0 0        .000000 .000000 .000000 .000000
D2EICK13 EICKUM       0 0        .000000 .000000 .000000 .000000
D2EICK51 EICKUM       0 0        53.5482 -21.600 .000000 .000000
D2EICK52 EICKUM       0 0        53.5482 -21.600 .000000 .000000
D2EICK53 EICKUM       0 0        53.5482 -21.600 .000000 .000000
D2ELSE11 ELSEN        0 0        .000000 .000000 .000000 .000000
D2ELSE12 ELSEN        0 0        .000000 .000000 .000000 .000000
D2ELSE51 ELSEN        0 0        -31.700 -18.000 .000000 .000000
D2ELSE52 ELSEN        0 0        -63.600 -35.900 .000000 .000000
D2ELSE54 ELSEN        0 0        -31.700 -18.000 .000000 .000000
D2ELT 11 ELTMANN      0 0        .000000 .000000 .000000 .000000
D2ELT 12 ELTMANN      0 0        .000000 .000000 .000000 .000000
D2ELT 51 ELTMANN      0 0        -.30000 .000000 .000000 .000000
D2ELT 52 ELTMANN      0 0        -.30000 .000000 .000000 .000000
D2ELWE11 ELSFLETH WES 0 0        .000000 .000000 .000000 .000000
D2ELWE12 ELSFLETH WES 0 0        .000000 .000000 .000000 .000000
D2ELWE13 ELSFLETH WES 0 0        .000000 .000000 .000000 .000000
D2EMDB21 EMDEN        0 0        .000000 .000000 .000000 .000000
D2EMDB22 EMDEN        0 0        .000000 .000000 .000000 .000000
D2EMDB31 EMDEN        0 0        .000000 .000000 .000000 .000000
D2EMDB51 EMDEN        0 0        -199.00 -4.9000 .000000 .000000
D2EMDB52 EMDEN        0 0        -199.00 -4.9000 .000000 .000000
D2EMDE21 EMDEN        0 2 240.80 .000000 .000000 .300000 67.6116 .300000 -469.70 158.600 -318.60
D2EMOS11 EMDEN OST    0 0        .000000 .000000 .000000 .000000
D2EMOS15 EMDEN OST    0 0        .000000 .000000 .000000 .000000
D2EMOS28 EMDEN OST    0 0        .000000 .000000 .000000 .000000
D2EMOS29 EMDEN OST    0 0        .000000 .000000 .000000 .000000
D2EOKE8A BORWIN GAMMA 0 0        .000000 .000000 .000000 .000000
D2EOKE8B BORWIN GAMMA 0 2 332.80 .000000 .000000 -850.00 109.170 16.0000 -850.00 500.000 -352.00
D2ERZH11 ERZHAUSEN    0 0        .000000 .000000 .000000 .000000
D2ERZH12 ERZHAUSEN    0 0        .000000 .000000 .000000 .000000
D2ERZH21 ERZHAUSEN    0 2 234.50 .000000 .000000 114.400 -62.165 125.900 -124.10 91.3000 -5.6000
D2ERZH22 ERZHAUSEN    0 2 235.40 .000000 .000000 57.2000 -59.501 125.400 -124.60 102.700 -56.400
D2ETZ 11 ETZENRICHT   0 0        .000000 .000000 .000000 .000000
D2ETZ 12 ETZENRICHT   0 0        .000000 .000000 .000000 .000000
D2ETZ 21 ETZENRICHT   0 0        .000000 .000000 .000000 .000000
D2ETZ 51 ETZENRICHT   0 0        11.7105 3.00000 .000000 .000000
D2ETZ 52 ETZENRICHT   0 0        11.7105 3.00000 .000000 .000000
D2ETZ 53 ETZENRICHT   0 0        11.7105 3.00000 .000000 .000000
D2ETZ 54 ETZENRICHT   0 0        11.7105 3.00000 .000000 .000000
D2FARG11 FARGE        0 2 416.10 .000000 .000000 2.60000 285.732 2.60000 -179.90 109.700 -162.90
D2FARG12 FARGE        0 0        .000000 .000000 .000000 .000000
D2FARG51 FARGE        0 2 118.70 -69.800 -34.800 -2.4000 -13.030 .200000 -89.800 48.2000 -68.200
D2FARG52 FARGE        0 0        -69.800 -34.800 .000000 .000000
D2FARG59 FARGE        0 0        .000000 .000000 .000000 .000000
D2FEDD11              0 0        .000000 .000000 .000000 .000000
D2FEDD12              0 0        .000000 .000000 .000000 .000000
D2FEDD13              0 0        .000000 .000000 .000000 .000000
D2FEDD21              0 0        .000000 .000000 .000000 .000000
D2FEDD23              0 0        .000000 .000000 .000000 .000000
D2FG  12 FOEHRING     0 0        337.804 7.00000 .000000 .000000
D2FG  13 FOEHRING     0 0        .000000 .000000 .000000 .000000
D2FG  19 FOEHRING     0 0        .000000 .000000 .000000 .000000
D2FG  1U FOEHRING     0 0        .000000 .000000 .000000 .000000
D2FRAM52 FRANKFURT MI 0 0        99.0892 -42.400 .000000 .000000
D2FRAM53 FRANKFURT MI 0 0        99.0892 -42.400 .000000 .000000
D2FRAM57 FRANKFURT MI 0 0        .000000 .000000 .000000 .000000
D2FRAM58 FRANKFURT MI 0 0        .000000 .000000 .000000 .000000
D2FRAM59 FRANKFURT MI 0 0        .000000 .000000 .000000 .000000
D2FRAN21 FRANKFURT    0 0        .000000 .000000 .000000 .000000
D2FRAN22 FRANKFURT    0 0        .000000 .000000 .000000 .000000
D2FRAN24 FRANKFURT    0 0        .000000 .000000 .000000 .000000
D2FRAN51 FRANKFURT    0 0        29.9269 -4.1000 .000000 .000000
D2FRAN52 FRANKFURT    0 0        29.9269 -4.1000 .000000 .000000
D2FRSW11 FRANKFURT SW 0 0        .000000 .000000 .000000 .000000
D2FRSW12 FRANKFURT SW 0 0        .000000 .000000 .000000 .000000
D2FRSW51 FRANKFURT SW 0 0        195.476 43.7000 .000000 .000000
D2GANK11 GANDERKESEE  0 0        .000000 .000000 .000000 .000000
D2GANK12 GANDERKESEE  0 0        .000000 .000000 .000000 .000000
D2GANK51 GANDERKESEE  0 0        -61.300 -9.2000 .000000 .000000
D2GANK52 GANDERKESEE  0 0        -61.300 -9.2000 .000000 .000000
D2GEB 51 GEBERSDORF   0 0        69.5626 -8.2000 .000000 .000000
D2GEB 52 GEBERSDORF   0 0        69.5626 -8.2000 .000000 .000000
D2GEB 5A GEBERSDORF   0 2 114.20 .000000 .000000 .200000 -.00000 7.20000 -394.80 171.800 -251.90
D2GEB 5B GEBERSDORF   0 2 114.20 .000000 .000000 .200000 -.00000 .200000 -394.80 171.300 -260.30
D2GEB 5C GEBERSDORF   0 2 114.20 .000000 .000000 .000000 139.464 .000000 -65.000 30.1000 -40.200
D2GIEN11 GIESSEN NORD 0 0        .000000 .000000 .000000 .000000
D2GIEN12 GIESSEN NORD 0 0        .000000 .000000 .000000 .000000
D2GIEN13 GIESSEN NORD 0 0        .000000 .000000 .000000 .000000
D2GIEN51 GIESSEN NORD 0 0        37.0333 -3.4000 .000000 .000000
D2GIEN52 GIESSEN NORD 0 0        37.0333 -3.4000 .000000 .000000
D2GKRO11 GROSSKROTZB  0 0        .000000 .000000 .000000 .000000
D2GKRO12 GROSSKROTZB  0 0        .000000 .000000 .000000 .000000
D2GKRO1B GKRO STAU 4  0 2 407.10 .000000 .000000 .300000 -241.66 .300000 -779.70 330.600 -503.60
D2GKRO1C GKRO STAU 5  0 2 407.10 .000000 .000000 .200000 .000000 .200000 -686.80 278.100 -475.20
D2GKRO21 GROSSKROTZB  0 0        .000000 .000000 .000000 .000000
D2GKRO22 GROSSKROTZB  0 0        .000000 .000000 .000000 .000000
D2GKRO51 GROSSKROTZB  0 0        11.3102 7.50000 .000000 .000000
D2GKRO52 GROSSKROTZB  0 0        11.3102 7.50000 .000000 .000000
D2GLEI21 GLEIDINGEN   0 0        .000000 .000000 .000000 .000000
D2GLEI22 GLEIDINGEN   0 0        .000000 .000000 .000000 .000000
D2GLEI52 GLEIDINGEN   0 0        13.6123 -.20000 .000000 .000000
D2GLEI54 GLEIDINGEN   0 0        6.90622 -.10000 .000000 .000000
D2GODE21 GODENAU      0 0        .000000 .000000 .000000 .000000
D2GODE51 GODENAU      0 0        18.2164 -5.0000 .000000 .000000
D2GODE52 GODENAU      0 0        18.2164 -5.0000 .000000 .000000
D2GOET21 GOETTINGEN   0 0        .000000 .000000 .000000 .000000
D2GOET22 GOETTINGEN   0 0        .000000 .000000 .000000 .000000
D2GOET51 GOETTINGEN   0 0        5.30477 -2.2000 .000000 .000000
D2GOET52 GOETTINGEN   0 0        5.30477 -2.2000 .000000 .000000
D2GOEZ21 GOETZDORF    0 0        .000000 .000000 .000000 .000000
D2GR  11 GRAFENRHEINF 0 0        .000000 .000000 .000000 .000000
D2GR  12 GRAFENRHEINF 0 0        .000000 .000000 .000000 .000000
D2GROH11 GROHNDE      0 0        .000000 .000000 .000000 .000000
D2GROH12 GROHNDE      0 0        .000000 .000000 .000000 .000000
D2GROH1A GROHNDE      0 0        .000000 .000000 .000000 .000000
D2GROH51 GROHNDE      0 0        -28.200 19.4000 .000000 .000000
D2GROH52 GROHNDE      0 0        -28.200 19.4000 .000000 .000000
D2HALL21 HALLENDORF   0 0        11.7105 4.80000 .000000 .000000
D2HAMN21 HAMBURG NORD 0 0        .000000 .000000 .000000 .000000
D2HAMN22 HAMBURG NORD 0 0        .000000 .000000 .000000 .000000
D2HAMN52 HAMBURG NORD 0 0        63.0567 -14.100 .000000 .000000
D2HAND11 FL.HANDEWITT 0 0        .000000 .000000 .000000 .000000
D2HAND12 FL.HANDEWITT 0 0        .000000 .000000 .000000 .000000
D2HAND14 FL.HANDEWITT 0 0        -2.0000 .000000 .000000 .000000
D2HAND15 FL.HANDEWITT 0 0        2.00180 .000000 .000000 .000000
D2HAND51 FL.HANDEWITT 0 0        -334.20 31.6000 .000000 .000000
D2HAND52 FL.HANDEWITT 0 0        -334.20 31.6000 .000000 .000000
D2HANW21 HANNOVER WES 0 0        .000000 .000000 .000000 .000000
D2HANW22 HANNOVER WES 0 0        .000000 .000000 .000000 .000000
D2HANW51 HANNOVER WES 0 0        11.2101 -5.5000 .000000 .000000
D2HANW52 HANNOVER WES 0 0        11.2101 -5.5000 .000000 .000000
D2HARD11 HARDEGSEN    0 0        .000000 .000000 .000000 .000000
D2HARD12 HARDEGSEN    0 0        .000000 .000000 .000000 .000000
D2HARD21 HARDEGSEN    0 0        .000000 .000000 .000000 .000000
D2HARD22 HARDEGSEN    0 0        .000000 .000000 .000000 .000000
D2HARD23 HARDEGSEN    0 0        .000000 .000000 .000000 .000000
D2HARD52 HARDEGSEN    0 0        -.90000 .100000 .000000 .000000
D2HARD53 HARDEGSEN    0 0        -.90000 .100000 .000000 .000000
D2HARD55 HARDEGSEN    0 0        -.90000 .100000 .000000 .000000
D2HARD56 HARDEGSEN    0 0        .000000 .000000 .000000 .000000
D2HATT11 HATTORF      0 0        .000000 .000000 .000000 .000000
D2HATT12 HATTORF      0 0        .000000 .000000 .000000 .000000
D2HATT51 HATTORF      0 0        -68.900 47.3000 .000000 .000000
D2HATT52 HATTORF      0 0        -68.900 47.3000 .000000 .000000
D2HEIW11 HEIDE WEST   0 0        .000000 .000000 .000000 .000000
D2HEIW12 HEIDE WEST   0 0        .000000 .000000 .000000 .000000
D2HEIW13 HEIDE WEST   0 0        .000000 .000000 .000000 .000000
D2HEIW51 HEIDE WEST   0 0        -242.20 25.8000 .000000 .000000
D2HEIW52 HEIDE WEST   0 0        -242.20 25.8000 .000000 .000000
D2HEIW53 HEIDE WEST   0 0        -242.20 25.8000 .000000 .000000
D2HELM11 HELMSTEDT    0 0        .000000 .000000 .000000 .000000
D2HELM12 HELMSTEDT    0 0        .000000 .000000 .000000 .000000
D2HELM19 HELMSTEDT    0 2 409.10 .000000 .000000 .500000 -187.81 .600000 -306.90 125.500 -211.90
D2HELM52 HELMSTEDT    0 0        -104.60 -35.700 .000000 .000000
D2HELM53 HELMSTEDT    0 0        -104.60 -35.700 .000000 .000000
D2HEYD11 HEYDEN       0 0        .000000 .000000 .000000 .000000
D2HUNT21 HUNTORF      0 2 238.20 .000000 .000000 .200000 4.71323 72.2000 -339.80 137.800 -224.50
D2HUNT22 HUNTORF      0 0        .000000 .000000 .000000 .000000
D2HUSN11              0 0        .000000 .000000 .000000 .000000
D2HUSN12              0 0        .000000 .000000 .000000 .000000
D2HUSN13              0 0        .000000 .000000 .000000 .000000
D2HUSN51              0 0        -147.50 9.30000 .000000 .000000
D2HUSN52              0 0        -147.50 9.30000 .000000 .000000
D2HUSN53              0 0        -147.50 9.30000 .000000 .000000
D2HWBC19 HERRENWYK BC 0 0        .000000 .000000 .000000 .000000
D2HWKR1D HERRENWYK BC 0 0        .000000 .000000 .000000 .000000 640.000 -620.00
D2HWYK11 HERRENWYK    0 0        .000000 .000000 .000000 .000000
D2HWYK52 HERRENWYK    0 0        10.0090 1.10000 .000000 .000000
D2IN  21 INGOLSTADT   0 0        .000000 .000000 .000000 .000000
D2IN  22 INGOLSTADT   0 0        .000000 .000000 .000000 .000000
D2IN  2A INGOLSTADT   0 2 241.40 .000000 .000000 .000000 .000000 .000000 -440.00 195.100 -314.40
D2IN  2B INGOLSTADT   0 2 241.40 .000000 .000000 .000000 -122.21 .000000 -470.00 195.100 -314.50
D2IN  51 INGOLSTADT   0 0        22.3201 -8.1000 .000000 .000000
D2IN  52 INGOLSTADT   0 0        22.3201 -8.1000 .000000 .000000
D2INHA21 INHAUSEN     0 0        20.3183 11.9000 .000000 .000000 113.000 -5.0000
D2IRS 11 IRSCHING     0 0        -125.00 .000000 .000000 .000000
D2IRS 12 IRSCHING     0 0        -125.00 .000000 .000000 .000000
D2IRS 1A IRSCHING     0 2 416.40 .000000 .000000 .100000 -.00000 .100000 -609.90 356.600 -482.00
D2IRS 1B IRSCHING     0 2 415.10 .000000 .000000 .000000 -24.597 .000000 -350.00 187.800 -257.40
D2IRS 1C IRSCHING     0 2 416.40 .000000 .000000 .000000 .000000 .000000 -700.00 377.800 -481.60
D2IRS 1E IRSCHING     0 2 416.40 .000000 .000000 .200000 -184.38 .200000 -499.80 213.200 -364.40
D2IRS 29 IRSCHING     0 0        .000000 .000000 .000000 .000000
D2IRS 51 IRSCHING     0 0        -2.9000 .700000 .000000 .000000
D2IRS 53 IRSCHING     0 0        -2.9000 .700000 .000000 .000000
D2IS  11 ISAR         0 0        .000000 .000000 .000000 .000000
D2IS  13 ISAR         0 0        .000000 .000000 .000000 .000000
D2IS  15 ISAR         0 2 409.10 .000000 .000000 -735.70 242.872 1.50000 -811.00 383.100 -278.30
D2IS  16 ISAR         0 2 409.10 .000000 .000000 -671.80 179.496 2.20000 -671.80 290.700 -49.600
D2IS  17 ISAR         0 0        .000000 .000000 .000000 .000000
D2IS  18 ISAR         0 0        .000000 .000000 .000000 .000000
D2ITZW21 ITZEHOE WEST 0 0        .000000 .000000 .000000 .000000
D2ITZW22 ITZEHOE WEST 0 0        .000000 .000000 .000000 .000000
D2ITZW51 ITZEHOE WEST 0 0        .000000 .000000 .000000 .000000
D2ITZW52 ITZEHOE WEST 0 0        -28.900 -7.5000 .000000 .000000
D2ITZW53 ITZEHOE WEST 0 2 114.50 -28.900 -7.5000 .000000 67.2807 .000000 -83.000 41.0000 -57.300
D2ITZW54 ITZEHOE WEST 0 0        -28.900 -7.5000 .000000 .000000
D2ITZW55 ITZEHOE WEST 0 0        -28.900 -7.5000 .000000 .000000
D2JARD11 JARDELUND    0 0        .000000 .000000 .000000 .000000
D2JARD12 JARDELUND    0 0        2.00180 .000000 .000000 .000000
D2JARD13 JARDELUND    0 0        -2.0000 .000000 .000000 .000000
D2JARD1A JARDELUND    0 0        .000000 .000000 -82.200 12.7000 12.0000 -83.000 30.0000 -30.000
D2JARD51 JARDELUND    0 0        -67.100 -2.0000 .000000 .000000
D2JARD52 JARDELUND    0 0        -67.100 -2.0000 .000000 .000000
D2KARB11 KARBEN       0 0        .000000 .000000 .000000 .000000
D2KARB12 KARBEN       0 0        .000000 .000000 .000000 .000000
D2KARB52 KARBEN       0 0        .000000 .000000 .000000 .000000
D2KHT 25 KUEHTAI      0 0        .000000 .000000 .000000 .000000
D2KHT 27 KUEHTAI      0 0        .000000 .000000 .000000 .000000
D2KHT 2A KUEHTAI KW1  0 2 236.10 .000000 .000000 120.300 -45.629 125.300 -175.70 141.500 -102.00
D2KHT 2B KUEHTAI KW2  0 2 236.20 .000000 .000000 .100000 -32.374 125.100 -175.90 129.400 -110.90
D2KIES21 KIEL SUED    0 0        .000000 .000000 .000000 .000000
D2KIES22 KIEL SUED    0 0        .000000 .000000 .000000 .000000
D2KIES51 KIEL SUED    0 0        -55.200 37.8000 .000000 .000000
D2KIES52 KIEL SUED    0 0        -18.300 12.6000 .000000 .000000
D2KIES53 KIEL SUED    0 0        -18.300 12.6000 .000000 .000000
D2KIEW21 KIEL WEST    0 0        .000000 .000000 .000000 .000000
D2KIEW22 KIEL WEST    0 0        .000000 .000000 .000000 .000000
D2KIEW51 KIEL WEST    0 0        11.6104 -3.7000 .000000 .000000
D2KIEW5U KIEL WEST    0 0        .000000 .000000 .000000 .000000
D2KILS11 KLEIN ILSEDE 0 0        .000000 .000000 .000000 .000000
D2KILS51 KLEIN ILSEDE 0 0        17.8160 7.40000 .000000 .000000
D2KILS52 KLEIN ILSEDE 0 0        17.8160 7.40000 .000000 .000000
D2KILS53 KLEIN ILSEDE 0 0        35.4319 14.9000 .000000 .000000
D2KLIS11              0 0        .000000 .000000 .000000 .000000
D2KLIS51              0 0        .000000 .000000 .000000 .000000
D2KR  21 KRUEN        0 0        .000000 .000000 .000000 .000000
D2KR  22 KRUEN        0 0        .000000 .000000 .000000 .000000
D2KR  51 KRUEN        0 0        13.6123 -6.3000 .000000 .000000
D2KRI 11 KRIEGENBRUNN 0 0        .000000 .000000 .000000 .000000
D2KRI 12 KRIEGENBRUNN 0 0        .000000 .000000 .000000 .000000
D2KRI 52 KRIEGENBRUNN 0 0        35.5320 -12.700 .000000 .000000
D2KRI 53 KRIEGENBRUNN 0 0        35.5320 -12.700 .000000 .000000
D2KRUE11 KRUEMMEL     0 0        .000000 .000000 .000000 .000000
D2KRUE12 KRUEMMEL     0 0        .000000 .000000 .000000 .000000
D2KRUE51 KRUEMMEL     0 0        14.4130 -5.7000 .000000 .000000
D2KRUE52 KRUEMMEL     0 0        14.4130 -5.7000 .000000 .000000
D2KUMM11 KUMMERFELD   0 0        .000000 .000000 .000000 .000000
D2KUMM12 KUMMERFELD   0 0        .000000 .000000 .000000 .000000
D2KUMM51 KUMMERFELD   0 0        24.8223 -.20000 .000000 .000000
D2KUMM53 KUMMERFELD   0 0        24.8223 -.20000 .000000 .000000
D2LAGE21 LAGE         0 0        .000000 .000000 .000000 .000000
D2LAGE51 LAGE         0 0        12.8115 -5.7000 .000000 .000000
D2LAGE52 LAGE         0 0        12.8115 -5.7000 .000000 .000000
D2LAMS11              0 0        .000000 .000000 .000000 .000000
D2LAMS12              0 0        .000000 .000000 .000000 .000000
D2LAMS51              0 0        -8.0000 .000000 .000000 .000000
D2LAMS52              0 0        -8.0000 .000000 .000000 .000000
D2LAND11 LANDESBERGEN 0 2 411.20 .000000 .000000 .400000 -904.57 .400000 -639.60 212.700 -349.10
D2LAND12 LANDESBERGEN 0 0        .000000 .000000 .000000 .000000
D2LAND21 LANDESBERGEN 0 0        .000000 .000000 .000000 .000000
D2LAND22 LANDESBERGEN 0 0        .000000 .000000 .000000 .000000
D2LAND62 LANDESBERGEN 0 2 66.400 -15.800 -1.6000 .000000 -26.886 40.0000 -70.000 31.5000 -53.700
D2LBEC21 LUEBECK      0 0        .000000 .000000 .000000 .000000
D2LBEC22 LUEBECK      0 0        .000000 .000000 .000000 .000000
D2LBEC51 LUEBECK      0 0        12.6113 .800000 .000000 .000000
D2LEHR21 LEHRTE       0 0        .000000 .000000 .000000 .000000
D2LEHR22 LEHRTE       0 0        .000000 .000000 .000000 .000000
D2LEHR51 LEHRTE       0 0        -102.00 70.0000 .000000 .000000
D2LEHR53 LEHRTE       0 0        -51.100 35.0000 .000000 .000000
D2LU  21 LUDERSHEIM   0 0        .000000 .000000 .000000 .000000
D2LU  51 LUDERSHEIM   0 0        37.0333 -4.2000 .000000 .000000
D2LU  52 LUDERSHEIM   0 0        37.0333 -4.2000 .000000 .000000
D2LUEN11 LUENEBURG    0 0        .000000 .000000 .000000 .000000
D2LUEN52 LUENEBURG    0 0        -71.800 49.2000 .000000 .000000
D2LUEN53 LUENEBURG    0 0        -71.800 49.2000 .000000 .000000
D2MAAD21 MAADE        0 0        .000000 .000000 .000000 .000000
D2MAAD22 MAADE        0 0        .000000 .000000 .000000 .000000
D2MAKW12 MAADE        0 2 421.50 .000000 .000000 .300000 -140.25 .300000 -917.70 279.200 -692.70
D2MBG 28 MARIENBERG   0 0        .000000 .000000 .000000 .000000
D2MBG 29 MARIENBERG   0 0        .000000 .000000 .000000 .000000
D2MBG 51 MARIENBERG   0 0        26.9242 19.2000 .000000 .000000
D2MBG 53 MARIENBERG   0 0        26.9242 19.2000 .000000 .000000
D2MEB 51 MEB          0 0        -115.70 -52.700 .000000 .000000
D2MEB 52 MEB          0 0        -115.70 -52.700 .000000 .000000
D2MECK11 MECKLAR      0 0        .000000 .000000 .000000 .000000
D2MECK12 MECKLAR      0 0        .000000 .000000 .000000 .000000
D2MECK13 MECKLAR      0 0        .000000 .000000 .000000 .000000
D2MECK51 MECKLAR      0 0        -54.500 -31.100 .000000 .000000
D2MECK52 MECKLAR      0 0        -54.500 -31.100 .000000 .000000
D2MECK58 MECKLAR      0 0        .000000 .000000 .000000 .000000
D2MECK59 MECKLAR      0 0        .000000 .000000 .000000 .000000
D2MEHN12              0 0        .000000 .000000 .000000 .000000
D2MEHN13              0 0        .000000 .000000 .000000 .000000
D2MEHR21 MEHRUM       0 0        68.0613 -3.9000 .000000 .000000
D2MEHR23 MEHRUM       0 0        34.0306 -2.0000 .000000 .000000
D2MEHR2A MEHRUM       0 2 234.10 .000000 .000000 -2.6000 -60.855 .400000 -799.60 329.900 -539.00
D2MEIS21 MEISSEN      0 0        .000000 .000000 .000000 .000000
D2MEIS51 MEISSEN      0 0        34.2308 -14.400 .000000 .000000
D2MEIS52 MEISSEN      0 0        34.2308 -14.400 .000000 .000000
D2MH  11 MECHLENREUTH 0 0        .000000 .000000 .000000 .000000
D2MH  12 MECHLENREUTH 0 0        .000000 .000000 .000000 .000000
D2MH  51 MECHLENREUTH 0 0        .000000 .000000 .000000 .000000
D2MH  52 MECHLENREUTH 0 0        .000000 .000000 .000000 .000000
D2MUEN51 MUEN         0 0        -29.900 20.5000 .000000 .000000
D2MUEN52 MUEN         0 0        -29.900 20.5000 .000000 .000000
D2MUEN53 MUEN         0 0        -29.900 20.5000 .000000 .000000
D2MUEN54 MUEN         0 0        -29.900 20.5000 .000000 .000000
D2MZ  12 MENZING      0 0        253.028 9.00000 .000000 .000000
D2MZ  1U MENZING      0 0        .000000 .000000 .000000 .000000
D2NFI 21 NEUFINSING   0 0        .000000 .000000 .000000 .000000
D2NFI 22 NEUFINSING   0 0        .000000 .000000 .000000 .000000
D2NFI 51 NEUFINSING   0 0        89.8809 -44.100 .000000 .000000
D2NFI 52 NEUFINSING   0 0        89.8809 -44.100 .000000 .000000
D2NLAN11 NIEDERLANGEN 0 0        .000000 .000000 .000000 .000000
D2NLAN51 NIEDERLANGEN 0 0        -72.500 5.60000 .000000 .000000
D2NLAN52 NIEDERLANGEN 0 0        -72.500 5.60000 .000000 .000000
D2NORG2B INHAUSEN NOR 0 0        .000000 .000000 -87.000 -14.800 4.00000 -111.00 30.0000 -30.000
D2NVLD11 NIEDERVIELAN 0 0        68.5617 5.80000 .000000 .000000
D2NVLD12 NIEDERVIELAN 0 0        34.3309 2.90000 .000000 .000000
D2OBA 11 OBERBACHERN  0 0        .000000 .000000 .000000 .000000
D2OBA 13 OBERBACHERN  0 0        .000000 .000000 .000000 .000000
D2OBA 22 OBERBACHERN  0 0        .000000 .000000 .000000 .000000
D2OBA 2G OBERBACHERN  0 0        .000000 .000000 .000000 .000000
D2OBA 51 OBERBACHERN  0 0        .000000 .000000 .000000 .000000
D2OBA 52 OBERBACHERN  0 0        .000000 .000000 .000000 .000000
D2OBA 54 OBERBACHERN  0 0        72.0649 -33.700 .000000 .000000
D2OBA 55 OBERBACHERN  0 0        72.0649 -33.700 .000000 .000000
D2OBMZ11 OBERBACHERN  0 0        .000000 .000000 .000000 .000000
D2OBMZ12 OBERBACHERN  0 0        .000000 .000000 .000000 .000000
D2OBR 21 OBERBRUNN    0 0        .000000 .000000 .000000 .000000
D2OBR 22 OBERBRUNN    0 0        .000000 .000000 .000000 .000000
D2OBR 51 OBERBRUNN    0 0        30.4274 -14.100 .000000 .000000
D2OBR 52 OBERBRUNN    0 0        30.4274 -14.100 .000000 .000000
D2OBR 53 OBERBRUNN    0 0        30.4274 -14.100 .000000 .000000
D2OBR 54 OBERBRUNN    0 0        30.4274 -14.100 .000000 .000000
D2OD  12 OBERHAID     0 0        .000000 .000000 .000000 .000000
D2OD  51 OBERHAID     0 0        .000000 .000000 .000000 .000000
D2OH  11 OTTENHOFEN   0 0        .000000 .000000 .000000 .000000
D2OH  12 OTTENHOFEN   0 0        .000000 .000000 .000000 .000000
D2OH  21 OTTENHOFEN   0 0        .000000 .000000 .000000 .000000
D2OH  22 OTTENHOFEN   0 0        .000000 .000000 .000000 .000000
D2OHFG11 OTTENHOFEN   0 0        .000000 .000000 .000000 .000000
D2OHFG12 OTTENHOFEN   0 0        .000000 .000000 .000000 .000000
D2OHLS11 OHLENSEELEN  0 0        .000000 .000000 .000000 .000000
D2OHLS12 OHLENSEELEN  0 0        .000000 .000000 .000000 .000000
D2OHLS51 OHLENSEELEN  0 0        -144.50 -42.000 .000000 .000000
D2OHLS52 OHLENSEELEN  0 0        -144.50 -42.000 .000000 .000000
D2OVEN11 OVENSTAEDT   0 0        .000000 .000000 .000000 .000000
D2OVEN13 OVENSTAEDT   0 0        .000000 .000000 .000000 .000000
D2OVEN19 OVENSTAEDT   0 0        .000000 .000000 .000000 .000000
D2PI  21 PIRACH       0 0        .000000 .000000 .000000 .000000
D2PI  22 PIRACH       0 0        .000000 .000000 .000000 .000000
D2PI  51 PIRACH       0 0        .000000 .000000 .000000 .000000
D2PI  52 PIRACH       0 0        77.3696 21.9000 .000000 .000000
D2PI  53 PIRACH       0 0        77.3696 21.9000 .000000 .000000
D2PI  54 PIRACH       0 0        77.3696 21.9000 .000000 .000000
D2PI-N23              0 0        .000000 .000000 .000000 .000000
D2PLA 11 PLATTLING    0 0        .000000 .000000 .000000 .000000
D2PLA 51 PLATTLING    0 0        -29.400 8.30000 .000000 .000000
D2PLA 52 PLATTLING    0 0        -29.400 8.30000 .000000 .000000
D2PT  12 PLEINTING    0 0        .000000 .000000 .000000 .000000
D2PT  13 PLEINTING    0 0        .000000 .000000 .000000 .000000
D2PT  21 PLEINTING    0 0        .000000 .000000 .000000 .000000
D2PT  22 PLEINTING    0 0        .000000 .000000 .000000 .000000
D2PT  59 PLEINTING    0 0        -56.100 -24.000 .000000 .000000
D2PT  5N PLEINTING    0 0        -56.100 -24.000 .000000 .000000
D2RAI 11 RAITERSAICH  0 0        .000000 .000000 .000000 .000000
D2RAI 12 RAITERSAICH  0 0        .000000 .000000 .000000 .000000
D2RAI 1U RAITERSAICH  0 0        .000000 .000000 .000000 .000000
D2RAI 21 RAITERSAICH  0 0        .000000 .000000 .000000 .000000
D2RAI 23 RAITERSAICH  0 0        .000000 .000000 .000000 .000000
D2RAI 52 RAITERSAICH  0 0        .000000 .000000 .000000 .000000
D2RAI 59 RAITERSAICH  0 0        .000000 .000000 .000000 .000000
D2RE  21 REGENSBURG   0 0        .000000 .000000 .000000 .000000
D2RE  51 REGENSBURG   0 0        -11.200 1.50000 .000000 .000000
D2RE  52 REGENSBURG   0 0        -11.200 1.50000 .000000 .000000
D2RED 11 REDWITZ      0 0        .000000 .000000 .000000 .000000
D2RED 12 REDWITZ      0 0        .000000 .000000 .000000 .000000
D2RED 13 REDWITZ      0 0        .000000 .000000 .000000 .000000
D2RED 14 REDWITZ      0 0        .000000 .000000 .000000 .000000
D2RED 51 REDWITZ      0 0        15.8142 -5.9000 .000000 .000000
D2RED 52 REDWITZ      0 0        15.8142 -5.9000 .000000 .000000
D2RHED11 RHEDE        0 0        .000000 .000000 -74.000 3.80000 1.00000 -92.000 30.0000 -30.000
D2RIFF3A EMDEN-RIFF   0 0        .000000 .000000 .100000 54.0000
D2RIFF3B EMDEN-RIFF   0 2 161.10 .000000 .000000 -106.00 2.10667 3.00000 -115.00 42.0000 -42.000
D2SANO11 SANDERS. OST 0 0        19.3174 -2.9000 .000000 .000000
D2SD  11 SCHWANDORF   0 0        .000000 .000000 .000000 .000000
D2SD  22 SCHWANDORF   0 0        .000000 .000000 .000000 .000000
D2SD  51 SCHWANDORF   0 0        -22.200 -11.400 .000000 .000000
D2SD  52 SCHWANDORF   0 0        -22.200 -11.400 .000000 .000000
D2SD  53 SCHWANDORF   0 0        -22.200 -11.400 .000000 .000000
D2SD-N11              0 0        .000000 .000000 .000000 .000000
D2SD-N12              0 0        .000000 .000000 .000000 .000000
D2SD-N13              0 0        .000000 .000000 .000000 .000000
D2SDON11 SUEDERDONN   0 0        .000000 .000000 .000000 .000000
D2SDON12 SUEDERDONN   0 0        .000000 .000000 .000000 .000000
D2SDON13 SUEDERDONN   0 0        .000000 .000000 .000000 .000000
D2SDON51 SUEDERDONN   0 0        -195.90 1.60000 .000000 .000000
D2SDON52 SUEDERDONN   0 0        -195.90 1.60000 .000000 .000000
D2SHUW11              0 0        .000000 .000000 .000000 .000000
D2SHUW12              0 0        .000000 .000000 .000000 .000000
D2SHUW13              0 0        .000000 .000000 .000000 .000000
D2SHUW51              0 0        -73.200 -4.4000 .000000 .000000
D2SHUW52              0 0        -73.200 -4.4000 .000000 .000000
D2SI  23 SIMBACH      0 0        .000000 .000000 .000000 .000000
D2SI  24 SIMBACH      0 0        .000000 .000000 .000000 .000000
D2SI  51 SIMBACH      0 0        11.3102 -3.5000 .000000 .000000
D2SI  52 SIMBACH      0 0        11.3102 -3.5000 .000000 .000000
D2SIEM11 SIEMS        0 0        .000000 .000000 2.90000 .000000 3.00000 .000000 98.4000 -187.00
D2SIEM14 SIEMS        0 0        .000000 .000000 .000000 .000000
D2SIEM21 SIEMS        0 0        .000000 .000000 .000000 .000000
D2SIEM51 SIEMS        0 0        -22.300 -6.6000 .000000 .000000
D2SIEM52 SIEMS        0 0        -22.300 -6.6000 .000000 .000000
D2SIEM53 SIEMS        0 0        -22.300 -6.6000 .000000 .000000
D2SIEM54 SIEMS        0 0        -22.300 -6.6000 .000000 .000000
D2SIT 21 SITTLING     0 0        .000000 .000000 .000000 .000000
D2SIT 22 SITTLING     0 0        .000000 .000000 .000000 .000000
D2SIT 51 SITTLING     0 0        -1.3000 3.80000 .000000 .000000
D2SIT 52 SITTLING     0 0        -1.3000 3.80000 .000000 .000000
D2SLZ 21 SILZ         0 0        .000000 .000000 .000000 .000000
D2SLZ 22 SILZ         0 0        .000000 .000000 .000000 .000000
D2SLZ 2A SILZ         0 2 235.80 .000000 .000000 -15.700 -64.586 10.3000 -249.70 138.600 -259.70
D2SLZ 2B SILZ         0 2 235.80 .000000 .000000 .200000 -.00000 10.2000 -262.80 142.200 -263.90
D2SOTT11 SOTTRUM      0 0        .000000 .000000 .100000 .000000
D2SOTT12 SOTTRUM      0 0        .000000 .000000 .000000 .000000
D2SOTT13 SOTTRUM      0 0        .000000 .000000 .000000 .000000
D2SOTT21 SOTTRUM      0 0        .000000 .000000 .000000 .000000
D2SOTT22 SOTTRUM      0 0        .000000 .000000 .000000 .000000
D2SOTT51 SOTTRUM      0 0        -77.700 -2.3000 .000000 .000000
D2SOTT52 SOTTRUM      0 0        -77.700 -2.3000 .000000 .000000
D2SOTT53 SOTTRUM      0 0        -77.700 -2.3000 .000000 .000000
D2STAD17 STADORF      0 0        .000000 .000000 .000000 .000000
D2STAD19 STADORF      0 0        .000000 .000000 .000000 .000000
D2STAD51 STADORF      0 0        -100.40 -63.100 .000000 .000000
D2STAD52 STADORF      0 0        -100.40 -63.100 .000000 .000000
D2STAD57 STADORF      0 0        .000000 .000000 .000000 .000000
D2STAD58 STADORF      0 0        .000000 .000000 .000000 .000000
D2STAW11              0 0        .000000 .000000 .000000 .000000
D2STAW12              0 0        .000000 .000000 .000000 .000000
D2STAW21              0 0        368.932 131.800 .000000 .000000
D2TRE 21 TRENNFELD    0 0        .000000 .000000 .000000 .000000
D2TRE 22 TRENNFELD    0 0        .000000 .000000 .000000 .000000
D2TRE 51 TRENNFELD    0 0        -10.000 .000000 .000000 .000000
D2TRE 52 TRENNFELD    0 0        -20.000 .000000 .000000 .000000
D2TRE 54 TRENNFELD    0 0        -10.000 .000000 .000000 .000000
D2TWIS11 TWISTETAL    0 0        .000000 .000000 .000000 .000000
D2TWIS12 TWISTETAL    0 0        .000000 .000000 .000000 .000000
D2TWIS51 TWISTETAL    0 0        -71.300 -31.700 .000000 .000000
D2TWIS52 TWISTETAL    0 0        -71.300 -31.700 .000000 .000000
D2UWES11 UNTERWESER   0 0        .000000 .000000 .000000 .000000
D2UWES12 UNTERWESER   0 0        .000000 .000000 .000000 .000000
D2UWES21 UNTERWESER   0 0        .000000 .000000 .000000 .000000
D2UWES51 UNTERWESER   0 0        -28.900 -4.2000 .000000 .000000
D2UWES52 UNTERWESER   0 0        -28.900 -4.2000 .000000 .000000
D2UWES5U UNTERWESER   0 0        .000000 .000000 .000000 .000000
D2VELT21 VELTHEIM     0 0        .000000 .000000 .000000 .000000
D2VELT22 VELTHEIM     0 0        .000000 .000000 .000000 .000000
D2VELT51 VELTHEIM     0 0        19.1172 -8.1000 .000000 .000000
D2VELT52 VELTHEIM     0 0        19.1172 -8.1000 .000000 .000000
D2VOER12 VOERDEN      0 0        .000000 .000000 .000000 .000000
D2VOER51 VOERDEN      0 0        -44.700 -21.200 .000000 .000000
D2VOER52 VOERDEN      0 0        -44.700 -21.200 .000000 .000000
D2VOSL21 VOSLAPP      0 0        .000000 .000000 .000000 .000000
D2VOSL22 VOSLAPP      0 0        .000000 .000000 .000000 .000000
D2VOSL51 VOSLAPP      0 0        -109.40 -32.200 .000000 .000000
D2VOSL52 VOSLAPP      0 0        -109.40 -32.200 .000000 .000000
D2WAHL11 WAHLE        0 0        .000000 .000000 .000000 .000000
D2WAHL12 WAHLE        0 0        .000000 .000000 .000000 .000000
D2WAHL13 WAHLE        0 0        .000000 .000000 .000000 .000000
D2WAHL21 WAHLE        0 0        .000000 .000000 .000000 .000000
D2WAHL22 WAHLE        0 0        .000000 .000000 .000000 .000000
D2WALD11 WALDECK      0 0        .000000 .000000 .000000 .000000
D2WALD12 WALDECK      0 0        .000000 .000000 .000000 .000000
D2WALD1A WALDECK      0 2 409.30 .000000 .000000 -33.800 -504.65 270.200 -259.80 273.600 -232.20
D2WALD1B WALDECK      0 0        .000000 .000000 .000000 .000000
D2WECH21 WECHOLD      0 0        .000000 .000000 .000000 .000000
D2WECH22 WECHOLD      0 0        .000000 .000000 .000000 .000000
D2WECH51 WECHOLD      0 0        -107.20 -63.500 .000000 .000000
D2WECH52 WECHOLD      0 0        -107.20 -63.500 .000000 .000000
D2WG  13 WUERGAU      0 0        .000000 .000000 .000000 .000000
D2WG  16 WUERGAU      0 0        .000000 .000000 .000000 .000000
D2WG  17 WUERGAU      0 0        .000000 .000000 .000000 .000000
D2WG  18 WUERGAU      0 0        .000000 .000000 .000000 .000000
D2WG  19 WUERGAU      0 0        .000000 .000000 .000000 .000000
D2WG  51 WUERGAU      0 0        -29.700 -14.400 .000000 .000000
D2WG  52 WUERGAU      0 0        -29.700 -14.400 .000000 .000000
D2WILW11              0 0        .000000 .000000 .000000 .000000
D2WILW12              0 0        .000000 .000000 .000000 .000000
D2WILW13              0 0        .000000 .000000 .000000 .000000
D2WILW1A              0 0        .000000 .000000 -58.000 -3.6000 6.00000 -94.000 30.0000 -30.000
D2WILW51              0 0        -105.00 9.40000 .000000 .000000
D2WUER11 WUERGASSEN   0 0        .000000 .000000 .000000 .000000
D2WUER13 WUERGASSEN   0 0        .000000 .000000 .000000 .000000
D2WUER14 WUERGASSEN   0 0        .000000 .000000 .000000 .000000
D2WUER21 WUERGASSEN   0 0        .000000 .000000 .000000 .000000
D2WUER22 WUERGASSEN   0 0        .000000 .000000 .000000 .000000
D2WUER51 WUERGASSEN   0 0        -51.600 -28.600 .000000 .000000
D2WUER52 WUERGASSEN   0 0        -51.600 -28.600 .000000 .000000
D2YALF11 Y ALFSTEDT   0 0        .000000 .000000 .000000 .000000
D2YALF12 Y ALFSTEDT   0 0        .000000 .000000 .000000 .000000
D2YDOE21 Y DOERNIGHEI 0 0        .000000 .000000 .000000 .000000
D2YDOE22 Y DOERNIGHEI 0 0        .000000 .000000 .000000 .000000
D2YDOR51              0 0        .000000 .000000 .000000 .000000
D2YEMO21 Y EMDEN OST  0 0        .000000 .000000 .000000 .000000
D2YEMO22 Y EMDEN OST  0 0        .000000 .000000 .000000 .000000
D2YERZ23 Y ERZHAUSEN  0 0        .000000 .000000 .000000 .000000
D2YERZ24 Y ERZHAUSEN  0 0        .000000 .000000 .000000 .000000
D2YFRS11 Y FRANK.SUED 0 0        .000000 .000000 .000000 .000000
D2YGAN11              0 0        .000000 .000000 .000000 .000000
D2YHAL21 Y HALLENDORF 0 0        .000000 .000000 .000000 .000000
D2YHUN21 Y HUNTORF    0 0        .000000 .000000 .000000 .000000
D2YHUN22 Y HUNTORF    0 0        .000000 .000000 .000000 .000000
D2YKR 21 Y KRUEN      0 0        .000000 .000000 .000000 .000000
D2YKR 22 Y KRUEN      0 0        .000000 .000000 .000000 .000000
D2YKRI11              0 0        .000000 .000000 .000000 .000000
D2YKRI12              0 0        .000000 .000000 .000000 .000000
D2YNLA11 Y NIEDERLANG 0 0        .000000 .000000 .000000 .000000
D2YPLA11 Y PLATTLING  0 0        .000000 .000000 .000000 .000000
D2YRHE11 Y RHEDE      0 0        .000000 .000000 .000000 .000000
D2YSI 21 Y SITTLING   0 0        .000000 .000000 .000000 .000000
D2YSI 22 Y SITTLING   0 0        .000000 .000000 .000000 .000000
D2YSOT22 Y SOTTRUM    0 0        .000000 .000000 .000000 .000000
D2YVOE11 Y VOERDEN    0 0        .000000 .000000 .000000 .000000
D2YWAL11 Y WALDECK    0 0        .000000 .000000 .000000 .000000
D2YWAL12 Y WALDECK    0 0        .000000 .000000 .000000 .000000
D2YWEC21 Y WECHOLD    0 0        .000000 .000000 .000000 .000000
D2YWEC22 Y WECHOLD    0 0        .000000 .000000 .000000 .000000
D2ZOL 21 ZOLLING      0 0        .000000 .000000 .000000 .000000
D2ZOL 22 ZOLLING      0 0        .000000 .000000 .000000 .000000
D2ZOL 2A ZOLLING      0 2 233.10 .000000 .000000 .200000 48.6181 .200000 -469.80 231.100 -346.40
D2ZOL 51 ZOLLING      0 0        2.60234 .100000 .000000 .000000
D2ZOL 52 ZOLLING      0 0        7.90712 .300000 .000000 .000000
D2ZOL 55 ZOLLING      0 0        2.60234 .100000 .000000 .000000 5.00000 -21.000 20.0000 -16.000
D43BRS11 BUERS        0 0        .000000 .000000 .000000 .000000
D43BRS12 BUERS        0 0        .000000 .000000 .000000 .000000
D43BRS13 BUERS        0 0        .000000 .000000 .000000 .000000
D43BRS14 BUERS        0 0        .000000 .000000 .000000 .000000
D43BRS21 BUERS        0 0        .000000 .000000 .000000 .000000
D43BRS22 BUERS        0 0        .000000 .000000 .000000 .000000
D43BRS23 BUERS        0 0        .000000 .000000 .000000 .000000
D43BRS26 BUERS        0 0        .000000 .000000 .000000 .000000
D43BRS51 BUERS        0 0        78.7709 -35.600 .000000 .000000
D43BRS52 BUERS        0 0        .000000 .000000 .000000 .000000
D43BRS53 BUERS        0 0        .000000 .000000 .000000 .000000
D43BRS54 BUERS        0 0        .000000 .000000 .000000 .000000
...